input/IEEE_24_bus_v30_19F_HW4.raw
 0, 100.0/RAWD VER 30 EXPORT BY PSAT


       1,'1           ',138.00,3,.000,.000,   1,   1,1.00000,.0000,   1,/* [                                ] */
       2,'2           ',138.00,2,.000,.000,   1,   1,.99783,.0102,   1,/* [                                ] */
       3,'3           ',138.00,1,.000,.000,   1,   1,.86395,10.7472,   1,/* [                                ] */
       4,'4           ',138.00,1,.000,.000,   1,   1,.88721,-.4167,   1,/* [                                ] */
       5,'5           ',138.00,1,.000,.000,   1,   1,.92693,-.2237,   1,/* [                                ] */
       6,'6           ',138.00,1,.000,.000,   1,   1,.90837,.3902,   1,/* [                                ] */
       7,'7           ',138.00,2,.000,.000,   1,   1,.79668,-.5811,   1,/* [                                ] */
       8,'8           ',230.00,1,.000,.000,   1,   1,.80581,-.8692,   1,/* [                                ] */
       9,'9           ',138.00,1,.000,.000,   1,   1,.83528,4.9829,   1,/* [                                ] */
      10,'10          ',138.00,1,.000,.000,   1,   1,.88216,3.7178,   1,/* [                                ] */
      11,'11          ',230.00,1,.000,.000,   1,   1,.83645,12.6275,   1,/* [                                ] */
      12,'12          ',230.00,1,.000,.000,   1,   1,.84016,11.7711,   1,/* [                                ] */
      13,'13          ',230.00,2,.000,.000,   1,   1,.83731,15.4352,   1,/* [                                ] */
      14,'14          ',230.00,2,.000,.000,   1,   1,.83675,18.7410,   1,/* [                                ] */
      15,'15          ',230.00,2,.000,.000,   1,   1,.88542,33.1896,   1,/* [                                ] */
      16,'16          ',230.00,2,.000,.000,   1,   1,.86242,27.0625,   1,/* [                                ] */
      17,'17          ',230.00,1,.000,.000,   1,   1,.89595,32.0375,   1,/* [                                ] */
      18,'18          ',230.00,2,.000,.000,   1,   1,.90125,33.8753,   1,/* [                                ] */
      19,'19          ',230.00,1,.000,.000,   1,   1,.85215,23.7833,   1,/* [                                ] */
      20,'20          ',230.00,1,.000,.000,   1,   1,.84969,22.3112,   1,/* [                                ] */
      21,'21          ',230.00,2,.000,.000,   1,   1,.91143,35.6336,   1,/* [                                ] */
      22,'22          ',230.00,2,.000,.000,   1,   1,1.00000,37.4784,   1,/* [                                ] */
      23,'23          ',230.00,2,.000,.000,   1,   1,.85006,22.0594,   1,/* [                                ] */
      24,'24          ',230.00,1,.000,.000,   1,   1,.85521,24.7952,   1,/* [                                ] */
0 / END OF BUS DATA, BEGIN LOAD DATA
2,'1 ',1,   1,   1,97.000,20.000,.000,.000,.000,.000,   1,/* [                                ] */
3,'1 ',1,   1,   1,90.000,19.000,.000,.000,.000,.000,   1,/* [                                ] */
4,'1 ',1,   1,   1,74.000,15.000,.000,.000,.000,.000,   1,/* [                                ] */
5,'1 ',1,   1,   1,71.000,14.000,.000,.000,.000,.000,   1,/* [                                ] */
6,'1 ',1,   1,   1,68.000,14.000,.000,.000,.000,.000,   1,/* [                                ] */
7,'1 ',1,   1,   1,62.000,13.000,.000,.000,.000,.000,   1,/* [                                ] */
8,'1 ',1,   1,   1,85.000,18.000,.000,.000,.000,.000,   1,/* [                                ] */
9,'1 ',1,   1,   1,175.000,36.000,.000,.000,.000,.000,   1,/* [                                ] */
10,'1 ',1,   1,   1,100.000,23.000,.000,.000,.000,.000,   1,/* [                                ] */
13,'1 ',1,   1,   1,130.000,27.000,.000,.000,.000,.000,   1,/* [                                ] */
14,'1 ',1,   1,   1,92.000,20.000,.000,.000,.000,.000,   1,/* [                                ] */
15,'1 ',1,   1,   1,158.000,32.000,.000,.000,.000,.000,   1,/* [                                ] */
16,'1 ',1,   1,   1,100.000,20.000,.000,.000,.000,.000,   1,/* [                                ] */
18,'1 ',1,   1,   1,162.000,34.000,.000,.000,.000,.000,   1,/* [                                ] */
19,'1 ',1,   1,   1,90.000,18.000,.000,.000,.000,.000,   1,/* [                                ] */
20,'1 ',1,   1,   1,65.000,13.000,.000,.000,.000,.000,   1,/* [                                ] */
0 / END OF LOAD DATA, BEGIN GENERATOR DATA
     1,'1 ',35.85,180.36,9900.00,-9900.00,1.00000,     0,100.00,.00000,1.00000,.00000,.00000,1.00000,1,100.0,1000.00,.00,   1,1.0000,,,,,,,,/* [                                ] */
     2,'1 ',67.00,.00,.00,.00,1.00000,     0,100.00,.00000,1.00000,.00000,.00000,1.00000,1,100.0,1000.00,.00,   1,1.0000,,,,,,,,/* [                                ] */
     7,'1 ',64.00,.00,.00,.00,1.00000,     0,100.00,.00000,1.00000,.00000,.00000,1.00000,1,100.0,1000.00,.00,   1,1.0000,,,,,,,,/* [                                ] */
    13,'1 ',200.00,.00,.00,.00,1.00000,     0,100.00,.00000,1.00000,.00000,.00000,1.00000,1,100.0,1000.00,.00,   1,1.0000,,,,,,,,/* [                                ] */
    14,'1 ',.00,.00,.00,.00,1.00000,     0,100.00,.00000,1.00000,.00000,.00000,1.00000,1,100.0,1000.00,.00,   1,1.0000,,,,,,,,/* [                                ] */
    15,'1 ',274.00,.00,.00,.00,1.00000,     0,100.00,.00000,1.00000,.00000,.00000,1.00000,1,100.0,1000.00,.00,   1,1.0000,,,,,,,,/* [                                ] */
    16,'1 ',245.00,.00,.00,.00,1.00000,     0,100.00,.00000,1.00000,.00000,.00000,1.00000,1,100.0,1000.00,.00,   1,1.0000,,,,,,,,/* [                                ] */
    18,'1 ',144.00,.00,.00,.00,1.00000,     0,100.00,.00000,1.00000,.00000,.00000,1.00000,1,100.0,1000.00,.00,   1,1.0000,,,,,,,,/* [                                ] */
    21,'1 ',294.00,.00,.00,.00,1.00000,     0,100.00,.00000,1.00000,.00000,.00000,1.00000,1,100.0,1000.00,.00,   1,1.0000,,,,,,,,/* [                                ] */
    22,'1 ',150.00,199.00,9900.00,-9900.00,1.00000,     0,100.00,.00000,1.00000,.00000,.00000,1.00000,1,100.0,1000.00,.00,   1,1.0000,,,,,,,,/* [                                ] */
    23,'1 ',200.00,.00,.00,.00,1.00000,     0,100.00,.00000,1.00000,.00000,.00000,1.00000,1,100.0,1000.00,.00,   1,1.0000,,,,,,,,/* [                                ] */
0 / END OF GENERATOR DATA, BEGIN BRANCH DATA
       1,       2,'1 ',    0.70000E-03,    0.014,    0.65000E-03,175.00,.00,.00,.00000,.00000,.00000,.00000,1,.00,   1,1.0000,,,,,,,,/* [                                ] */
       1,       3,'1 ',    0.54190E-01,    0.211    ,    0.61300E-01,175.00,.00,.00,.00000,.00000,.00000,.00000,1,.00,   1,1.0000,,,,,,,,/* [                                ] */
       1,       5,'1 ',    0.22430E-01,    0.085,    0.24400E-01,175.00,.00,.00,.00000,.00000,.00000,.00000,1,.00,   1,1.0000,,,,,,,,/* [                                ] */
       2,       4,'1 ',    0.33610E-01,    0.127    ,    0.36600E-01,175.00,.00,.00,.00000,.00000,.00000,.00000,1,.00,   1,1.0000,,,,,,,,/* [                                ] */
       2,       6,'1 ',    0.50640E-01,    0.192    ,    0.55700E-01,175.00,.00,.00,.00000,.00000,.00000,.00000,1,.00,   1,1.0000,,,,,,,,/* [                                ] */
       3,       9,'1 ',    0.31480E-01,    0.1190    ,    0.34300E-01,175.00,.00,.00,.00000,.00000,.00000,.00000,1,.00,   1,1.0000,,,,,,,,/* [                                ] */
       3,       24,'1 ',    0.31480E-01,    0.084    ,    0.34300E-01,175.00,.00,.00,.00000,.00000,.00000,.00000,1,.00,   1,1.0000,,,,,,,,/* [                                ] */
       4,       9,'1 ',    0.26920E-01,    0.104    ,    0.27900E-01,175.00,.00,.00,.00000,.00000,.00000,.00000,1,.00,   1,1.0000,,,,,,,,/* [                                ] */
       5,       10,'1 ',    0.26920E-01,    0.088    ,    0.27900E-01,175.00,.00,.00,.00000,.00000,.00000,.00000,1,.00,   1,1.0000,,,,,,,,/* [                                ] */
      6,       10,'1 ',    0.22620E-01,    0.061,    0.13029    ,175.00,.00,.00,.00000,.00000,.00000,.00000,1,.00,   1,1.0000,,,,,,,,/* [                                ] */
       7,       8,'1 ',    0.16140E-01,    0.061,    0.17900E-01,175.00,.00,.00,.00000,.00000,.00000,.00000,1,.00,   1,1.0000,,,,,,,,/* [                                ] */
       8,       9,'1 ',    0.42340E-01,    0.165    ,    0.47800E-01,175.00,.00,.00,.00000,.00000,.00000,.00000,1,.00,   1,1.0000,,,,,,,,/* [                                ] */
       8,      10,'1 ',    0.42340E-01,    0.165    ,    0.47800E-01,175.00,.00,.00,.00000,.00000,.00000,.00000,1,.00,   1,1.0000,,,,,,,,/* [                                ] */
       9,      11,'1 ',    0.42340E-01,    0.084    ,    0.47800E-01,175.00,.00,.00,.00000,.00000,.00000,.00000,1,.00,   1,1.0000,,,,,,,,/* [                                ] */
       9,      12,'1 ',    0.42340E-01,    0.084    ,    0.47800E-01,175.00,.00,.00,.00000,.00000,.00000,.00000,1,.00,   1,1.0000,,,,,,,,/* [                                ] */
       10,      11,'1 ',    0.42340E-01,    0.084    ,    0.47800E-01,175.00,.00,.00,.00000,.00000,.00000,.00000,1,.00,   1,1.0000,,,,,,,,/* [                                ] */
       10,      12,'1 ',    0.42340E-01,    0.084    ,    0.47800E-01,175.00,.00,.00,.00000,.00000,.00000,.00000,1,.00,   1,1.0000,,,,,,,,/* [                                ] */
      11,      13,'1 ',    0.58300E-02,    0.048,    0.95900E-01,500.00,.00,.00,.00000,.00000,.00000,.00000,1,.00,   1,1.0000,,,,,,,,/* [                                ] */
      11,      14,'1 ',    0.51300E-02,    0.042,    0.84300E-01,500.00,.00,.00,.00000,.00000,.00000,.00000,1,.00,   1,1.0000,,,,,,,,/* [                                ] */
      12,      13,'1 ',    0.58300E-02,    0.048,    0.95900E-01,500.00,.00,.00,.00000,.00000,.00000,.00000,1,.00,   1,1.0000,,,,,,,,/* [                                ] */
      12,      23,'1 ',    0.12240E-01,    0.097,    0.19840    ,500.00,.00,.00,.00000,.00000,.00000,.00000,1,.00,   1,1.0000,,,,,,,,/* [                                ] */
      13,      23,'1 ',    0.10600E-01,    0.087,    0.17520    ,500.00,.00,.00,.00000,.00000,.00000,.00000,1,.00,   1,1.0000,,,,,,,,/* [                                ] */
      14,      16,'1 ',    0.47700E-02,    0.059,    0.78500E-01,500.00,.00,.00,.00000,.00000,.00000,.00000,1,.00,   1,1.0000,,,,,,,,/* [                                ] */
      15,      16,'1 ',    0.21200E-02,    0.017    ,    0.34900E-01,500.00,.00,.00,.00000,.00000,.00000,.00000,1,.00,   1,1.0000,,,,,,,,/* [                                ] */
      15,      21,'1 ',    0.60700E-02,    0.049,    0.10060    ,500.00,.00,.00,.00000,.00000,.00000,.00000,1,.00,   1,1.0000,,,,,,,,/* [                                ] */
      15,      21,'2 ',    0.60700E-02,    0.049,    0.10060    ,500.00,.00,.00,.00000,.00000,.00000,.00000,1,.00,   1,1.0000,,,,,,,,/* [                                ] */
      15,      24,'1 ',    0.64200E-02,    0.052,    0.10660    ,500.00,.00,.00,.00000,.00000,.00000,.00000,1,.00,   1,1.0000,,,,,,,,/* [                                ] */
      16,      17,'1 ',    0.31800E-02,    0.026,    0.52300E-01,500.00,.00,.00,.00000,.00000,.00000,.00000,1,.00,   1,1.0000,,,,,,,,/* [                                ] */
      16,      19,'1 ',    0.28300E-02,    0.023,    0.46500E-01,500.00,.00,.00,.00000,.00000,.00000,.00000,1,.00,   1,1.0000,,,,,,,,/* [                                ] */
      17,      18,'1 ',    0.17700E-02,    0.014,    0.29100E-01,500.00,.00,.00,.00000,.00000,.00000,.00000,1,.00,   1,1.0000,,,,,,,,/* [                                ] */
      17,      22,'1 ',    0.12250E-01,    0.105    ,    0.21160    ,500.00,.00,.00,.00000,.00000,.00000,.00000,1,.00,   1,1.0000,,,,,,,,/* [                                ] */
      18,      21,'1 ',    0.33100E-02,    0.026,    0.53300E-01,500.00,.00,.00,.00000,.00000,.00000,.00000,1,.00,   1,1.0000,,,,,,,,/* [                                ] */
      18,      21,'2 ',    0.33100E-02,    0.026,    0.53300E-01,500.00,.00,.00,.00000,.00000,.00000,.00000,1,.00,   1,1.0000,,,,,,,,/* [                                ] */
      19,      20,'1 ',    0.50500E-02,    0.04,    0.81400E-01,500.00,.00,.00,.00000,.00000,.00000,.00000,1,.00,   1,1.0000,,,,,,,,/* [                                ] */
      19,      20,'2 ',    0.50500E-02,    0.04,    0.81400E-01,500.00,.00,.00,.00000,.00000,.00000,.00000,1,.00,   1,1.0000,,,,,,,,/* [                                ] */
      20,      23,'1 ',    0.27600E-02,    0.022,    0.44400E-01,500.00,.00,.00,.00000,.00000,.00000,.00000,1,.00,   1,1.0000,,,,,,,,/* [                                ] */
      20,      23,'2 ',    0.27600E-02,    0.022,    0.44400E-01,500.00,.00,.00,.00000,.00000,.00000,.00000,1,.00,   1,1.0000,,,,,,,,/* [                                ] */
      21,      22,'1 ',    0.82900E-02,    0.068,    0.13670    ,500.00,.00,.00,.00000,.00000,.00000,.00000,1,.00,   1,1.0000,,,,,,,,/* [                                ] */
0 / END OF BRANCH DATA, BEGIN TRANSFORMER DATA
0 / END OF TRANSFORMER DATA, BEGIN AREA DATA
    1,     0,     0.00,     1.00,'1           '
0 / END OF AREA DATA, BEGIN TWO-TERMINAL DC DATA
0 / END OF TWO-TERMINAL DC DATA, BEGIN VSC DC LINE DATA
0 / END OF VSC DC LINE DATA, BEGIN SWITCHED SHUNT DATA
     1,0,1.00000,.99000,     0,100.0, ' ',120.00, 1,120.00,     ,/* [                                ] */
     6,0,1.00000,.99000,     0,100.0, ' ',100.00, 1,100.00,     ,/* [                                ] */
0 / END OF SWITCHED SHUNT DATA, BEGIN IMPEDANCE CORRECTION TABLE DATA
0 / END OF IMPEDANCE CORRECTION TABLE DATA, BEGIN MULTI-TERMINAL DC DATA
0 / END OF MULTI-TERMINAL DC DATA, BEGIN MULTI-SECTION LINE DATA
0 / END OF MULTI-SECTION LINE DATA, BEGIN ZONE DATA
    1,'1           '
0 / END OF ZONE DATA, BEGIN INTER-AREA TRANSFER DATA
0 / END OF INTER-AREA TRANSFER DATA, BEGIN OWNER DATA
   1, '1           '
0 / END OF OWNER DATA, BEGIN FACTS DEVICE DATA
0 / END OF FACTS DATA
Q /End of data
